J12 nodal energy price/NorthWestCase.m
function [mpc] = NorthWestCase()
%NORTHWESTCASE Summary of this function goes here
%   Detailed explanation goes here
mpc.bus = [
    1	0	472	0	0	0	5	1	0	0	1	1	0
    2	0	436	0	0	0	5	1	0	0	1	1	0
    3	0	1332	0	0	0	5	1	0	0	1	1	0
    4	0	1000	0	0	0	5	1	0	0	1	1	0
    5	0	581	0	0	0	5	1	0	0	1	1	0
    6	0	1000	0	0	0	5	1	0	0	1	1	0
    7	0	1377	0	0	0	5	1	0	0	1	1	0
    8	0	1200	0	0	0	5	1	0	0	1	1	0
    9	0	1200	0	0	0	5	1	0	0	1	1	0
    10	0	572	0	0	0	5	1	0	0	1	1	0
    11	0	500	0	0	0	5	1	0	0	1	1	0
    12	0	572	0	0	0	5	1	0	0	1	1	0
    13	0	600	0	0	0	5	1	0	0	1	1	0
    14	0	600	0	0	0	5	1	0	0	1	1	0
    15	0	600	0	0	0	5	1	0	0	1	1	0
    16	0	300	0	0	0	5	1	0	0	1	1	0
    17	0	2000	0	0	0	5	1	0	0	1	1	0
    18	0	524	0	0	0	5	1	0	0	1	1	0
    19	0	683	0	0	0	5	1	0	0	1	1	0
    20	0	373	0	0	0	5	1	0	0	1	1	0
    21	0	426	0	0	0	5	1	0	0	1	1	0
    22	0	69	0	0	0	5	1	0	0	1	1	0
    23	0	182	0	0	0	5	1	0	0	1	1	0
    24	0	700	0	0	0	5	1	0	0	1	1	0
    25	0	700	0	0	0	5	1	0	0	1	1	0
    26	0	80	0	0	0	5	1	0	0	1	1	0
    27	0	40	0	0	0	5	1	0	0	1	1	0
    28	0	101	0	0	0	5	1	0	0	1	1	0
    29	0	1917	0	0	0	5	1	0	0	1	1	0
    30	0	1169	0	0	0	5	1	0	0	1	1	0
    31	0	1154	0	0	0	5	1	0	0	1	1	0
    32	0	1169	0	0	0	5	1	0	0	1	1	0
    33	0	540	0	0	0	5	1	0	0	1	1	0
    34	0	740	0	0	0	5	1	0	0	1	1	0
    35	0	200	0	0	0	5	1	0	0	1	1	0
    36	0	580	0	0	0	5	1	0	0	1	1	0
    37	0	1600	0	0	0	5	1	0	0	1	1	0
    38	0	420	0	0	0	5	1	0	0	1	1	0
    39	0	472	0	0	0	5	1	0	0	1	1	0
    40	0	700	0	0	0	5	1	0	0	1	1	0
    41	0	1544	0	0	0	5	1	0	0	1	1	0
    42	0	0	0	0	0	5	1	0	0	1	1	0
    43	0	400	0	0	0	5	1	0	0	1	1	0
    44	0	1600	0	0	0	5	1	0	0	1	1	0
    45	0	400	0	0	0	5	1	0	0	1	1	0
    46	0	400	0	0	0	5	1	0	0	1	1	0
    47	0	740	0	0	0	5	1	0	0	1	1	0
    48	0	600	0	0	0	5	1	0	0	1	1	0
    49	0	1516	0	0	0	5	1	0	0	1	1	0
    50	0	600	0	0	0	5	1	0	0	1	1	0
    51	0	740	0	0	0	5	1	0	0	1	1	0
    52	0	740	0	0	0	5	1	0	0	1	1	0
    53	0	400	0	0	0	5	1	0	0	1	1	0
    54	0	400	0	0	0	5	1	0	0	1	1	0
    55	0	3500	0	0	0	5	1	0	0	1	1	0
    56	0	1800	0	0	0	5	1	0	0	1	1	0
    57	0	400	0	0	0	5	1	0	0	1	1	0
    58	0	400	0	0	0	5	1	0	0	1	1	0
    59	0	1500	0	0	0	5	1	0	0	1	1	0
    60	0	400	0	0	0	5	1	0	0	1	1	0
    61	0	400	0	0	0	5	1	0	0	1	1	0
    62	0	400	0	0	0	5	1	0	0	1	1	0
    63	0	1749	0	0	0	5	1	0	0	1	1	0
    64	0	600	0	0	0	5	1	0	0	1	1	0
    65	0	845	0	0	0	5	1	0	0	1	1	0
    66	0	1100	0	0	0	5	1	0	0	1	1	0
    67	0	0	0	0	0	5	1	0	0	1	1	0
    68	0	0	0	0	0	5	1	0	0	1	1	0
    69	0	0	0	0	0	5	1	0	0	1	1	0
    70	0	0	0	0	0	5	1	0	0	1	1	0
    71	0	0	0	0	0	5	1	0	0	1	1	0
    72	0	0	0	0	0	5	1	0	0	1	1	0
    73	0	0	0	0	0	5	1	0	0	1	1	0
    74	0	0	0	0	0	5	1	0	0	1	1	0
    75	0	0	0	0	0	5	1	0	0	1	1	0
    76	0	0	0	0	0	5	1	0	0	1	1	0
    77	0	0	0	0	0	5	1	0	0	1	1	0
    78	0	0	0	0	0	5	1	0	0	1	1	0
    79	0	0	0	0	0	5	1	0	0	1	1	0
    80	0	0	0	0	0	5	1	0	0	1	1	0
    81	0	0	0	0	0	5	1	0	0	1	1	0
    82	0	400	0	0	0	5	1	0	0	1	1	0
    83	0	0	0	0	0	5	1	0	0	1	1	0
    84	0	700	0	0	0	5	1	0	0	1	1	0
    85	0	0	0	0	0	5	1	0	0	1	1	0
    86	0	0	0	0	0	5	1	0	0	1	1	0
    87	0	680	0	0	0	5	1	0	0	1	1	0
    88	0	680	0	0	0	5	1	0	0	1	1	0
    89	0	0	0	0	0	5	1	0	0	1	1	0
    90	0	856	0	0	0	5	1	0	0	1	1	0
    91	0	0	0	0	0	5	1	0	0	1	1	0
    92	0	0	0	0	0	5	1	0	0	1	1	0
    93	0	1000	0	0	0	5	1	0	0	1	1	0
    94	0	1000	0	0	0	5	1	0	0	1	1	0
    95	0	1264	0	0	0	5	1	0	0	1	1	0
    96	0	1373	0	0	0	5	1	0	0	1	1	0
    97	0	1200	0	0	0	5	1	0	0	1	1	0
    98	0	1200	0	0	0	5	1	0	0	1	1	0
    99	0	1350	0	0	0	5	1	0	0	1	1	0
    100	0	900	0	0	0	5	1	0	0	1	1	0
    101	0	0	0	0	0	5	1	0	0	1	1	0
    102	0	0	0	0	0	5	1	0	0	1	1	0
    103	0	0	0	0	0	5	1	0	0	1	1	0
    104	0	0	0	0	0	5	1	0	0	1	1	0
    105	0	1350	0	0	0	5	1	0	0	1	1	0
    106	0	1188	0	0	0	5	1	0	0	1	1	0
    107	0	1264	0	0	0	5	1	0	0	1	1	0
    108	0	1264	0	0	0	5	1	0	0	1	1	0
    109	0	0	0	0	0	5	1	0	0	1	1	0
    110	0	860	0	0	0	5	1	0	0	1	1	0
    111	0	1258	0	0	0	5	1	0	0	1	1	0
    112	0	1200	0	0	0	5	1	0	0	1	1	0
    113	0	1200	0	0	0	5	1	0	0	1	1	0
    114	0	790	0	0	0	5	1	0	0	1	1	0
    115	0	790	0	0	0	5	1	0	0	1	1	0
    116	0	790	0	0	0	5	1	0	0	1	1	0
    117	0	1264	0	0	0	5	1	0	0	1	1	0
    118	0	1200	0	0	0	5	1	0	0	1	1	0
    119	0	0	0	0	0	5	1	0	0	1	1	0
    120	0	800	0	0	0	5	1	0	0	1	1	0
    121	0	1350	0	0	0	5	1	0	0	1	1	0
    122	0	1350	0	0	0	5	1	0	0	1	1	0
    123	0	1200	0	0	0	5	1	0	0	1	1	0
    124	0	61	0	0	0	5	1	0	0	1	1	0
    125	0	715	0	0	0	5	1	0	0	1	1	0
    126	0	715	0	0	0	5	1	0	0	1	1	0
    127	0	715	0	0	0	5	1	0	0	1	1	0
    128	0	0	0	0	0	5	1	0	0	1	1	0
    129	0	1470	0	0	0	5	1	0	0	1	1	0
    130	0	1470	0	0	0	5	1	0	0	1	1	0
    131	0	0	0	0	0	5	1	0	0	1	1	0
    132	0	820	0	0	0	5	1	0	0	1	1	0
    133	0	820	0	0	0	5	1	0	0	1	1	0
    134	0	820	0	0	0	5	1	0	0	1	1	0
    135	0	0	0	0	0	5	1	0	0	1	1	0
    136	0	855	0	0	0	5	1	0	0	1	1	0
    137	0	855	0	0	0	5	1	0	0	1	1	0
    138	0	855	0	0	0	5	1	0	0	1	1	0
    139	0	0	0	0	0	5	1	0	0	1	1	0
    140	0	0	0	0	0	5	1	0	0	1	1	0
    141	0	0	0	0	0	5	1	0	0	1	1	0
    142	0	68	0	0	0	5	1	0	0	1	1	0
    143	0	0	0	0	0	5	1	0	0	1	1	0
    144	0	0	0	0	0	5	1	0	0	1	1	0
    145	0	0	0	0	0	5	1	0	0	1	1	0
    146	0	855	0	0	0	5	1	0	0	1	1	0
    147	0	68	0	0	0	5	1	0	0	1	1	0
    148	0	0	0	0	0	5	1	0	0	1	1	0
    149	0	820	0	0	0	5	1	0	0	1	1	0
    150	0	820	0	0	0	5	1	0	0	1	1	0
    151	0	820	0	0	0	5	1	0	0	1	1	0
    152	0	855	0	0	0	5	1	0	0	1	1	0
    153	0	855	0	0	0	5	1	0	0	1	1	0
    154	0	550	0	0	0	5	1	0	0	1	1	0
    155	0	0	0	0	0	5	1	0	0	1	1	0
    156	0	550	0	0	0	5	1	0	0	1	1	0
    157	0	0	0	0	0	5	1	0	0	1	1	0
    158	0	0	0	0	0	5	1	0	0	1	1	0
    159	0	600	0	0	0	5	1	0	0	1	1	0
    160	0	0	0	0	0	5	1	0	0	1	1	0
    161	0	0	0	0	0	5	1	0	0	1	1	0
    162	0	0	0	0	0	5	1	0	0	1	1	0
    163	0	68	0	0	0	5	1	0	0	1	1	0
    164	0	600	0	0	0	5	1	0	0	1	1	0
    165	0	600	0	0	0	5	1	0	0	1	1	0
    166	0	600	0	0	0	5	1	0	0	1	1	0
    167	0	100	0	0	0	5	1	0	0	1	1	0
    168	0	0	0	0	0	5	1	0	0	1	1	0
    169	0	44	0	0	0	5	1	0	0	1	1	0
    170	0	44	0	0	0	5	1	0	0	1	1	0
    171	0	44	0	0	0	5	1	0	0	1	1	0
    172	0	44	0	0	0	5	1	0	0	1	1	0
    173	0	44	0	0	0	5	1	0	0	1	1	0
    174	0	188	0	0	0	5	1	0	0	1	1	0
    175	0	100	0	0	0	5	1	0	0	1	1	0
    176	0	100	0	0	0	5	1	0	0	1	1	0
    177	0	100	0	0	0	5	1	0	0	1	1	0
    178	0	100	0	0	0	5	1	0	0	1	1	0
    179	0	100	0	0	0	5	1	0	0	1	1	0
    180	0	920	0	0	0	5	1	0	0	1	1	0
    181	0	540	0	0	0	5	1	0	0	1	1	0
    182	0	540	0	0	0	5	1	0	0	1	1	0
    183	0	700	0	0	0	5	1	0	0	1	1	0
    184	0	0	0	0	0	5	1	0	0	1	1	0
    185	0	0	0	0	0	5	1	0	0	1	1	0
    186	0	600	0	0	0	5	1	0	0	1	1	0
    187	0	0	0	0	0	5	1	0	0	1	1	0
    188	0	0	0	0	0	5	1	0	0	1	1	0
    189	0	0	0	0	0	5	1	0	0	1	1	0
    190	0	0	0	0	0	5	1	0	0	1	1	0
    191	0	0	0	0	0	5	1	0	0	1	1	0
    192	0	0	0	0	0	5	1	0	0	1	1	0
    193	0	800	0	0	0	5	1	0	0	1	1	0
    194	0	820	0	0	0	5	1	0	0	1	1	0
    195	0	800	0	0	0	5	1	0	0	1	1	0
    196	0	0	0	0	0	5	1	0	0	1	1	0
    197	0	0	0	0	0	5	1	0	0	1	1	0
];

mpc.gen = [
    2	7757	0	0	0	1.035	100	1	7757	2482.24	0	0	0	0	0	0	775.7	0	0	0	0
    13	1260	0	0	0	1.035	100	1	1260	504	0	0	0	0	0	0	126	0	0	0	0
    7	4945	0	0	0	1.035	100	1	4945	1582.4	0	0	0	0	0	0	494.5	0	0	0	0
    13	2630	0	0	0	1.035	100	1	2630	1052	0	0	0	0	0	0	263	0	0	0	0
    16	1320	0	0	0	1.035	100	1	1320	528	0	0	0	0	0	0	132	0	0	0	0
    17	4760	0	0	0	1.035	100	1	4760	1523.2	0	0	0	0	0	0	476	0	0	0	0
    28	2200	0	0	0	1.035	100	1	2200	880	0	0	0	0	0	0	220	0	0	0	0
    29	6160	0	0	0	1.035	100	1	6160	1971.2	0	0	0	0	0	0	616	0	0	0	0
    38	5000	0	0	0	1.035	100	1	5000	1600	0	0	0	0	0	0	500	0	0	0	0
    39	3000	0	0	0	1.035	100	1	3000	960	0	0	0	0	0	0	300	0	0	0	0
    41	2320	0	0	0	1.035	100	1	2320	928	0	0	0	0	0	0	232	0	0	0	0
    45	1200	0	0	0	1.035	100	1	1200	480	0	0	0	0	0	0	120	0	0	0	0
    49	4060	0	0	0	1.035	100	1	4060	1299.2	0	0	0	0	0	0	406	0	0	0	0
    59	5292	0	0	0	1.035	100	1	5292	1693.44	0	0	0	0	0	0	529.2	0	0	0	0
    61	5000	0	0	0	1.035	100	1	5000	1600	0	0	0	0	0	0	500	0	0	0	0
    63	4534	0	0	0	1.035	100	1	4534	1450.88	0	0	0	0	0	0	453.4	0	0	0	0
    65	4145	0	0	0	1.035	100	1	4145	1326.4	0	0	0	0	0	0	414.5	0	0	0	0
    83	4123	0	0	0	1.035	100	1	4123	1319.36	0	0	0	0	0	0	412.3	0	0	0	0
    90	6070	0	0	0	1.035	100	1	6070	1942.4	0	0	0	0	0	0	607	0	0	0	0
    95	5189	0	0	0	1.035	100	1	5189	1660	0	0	0	0	0	0	519	0	0	0	0
    96	863	0	0	0	1.035	100	1	863	345.2	0	0	0	0	0	0	86.3	0	0	0	0
    98	5189	0	0	0	1.035	100	1	5189	1660.8	0	0	0	0	0	0	519	0	0	0	0
    99	4730	0	0	0	1.035	100	1	4730	1513.6	0	0	0	0	0	0	473	0	0	0	0
    100	4000	0	0	0	1.035	100	1	4000	1280	0	0	0	0	0	0	400	0	0	0	0
    110	5300	0	0	0	1.035	100	1	5300	1696	0	0	0	0	0	0	530	0	0	0	0
    115	5000	0	0	0	1.035	100	1	5000	1600	0	0	0	0	0	0	500	0	0	0	0
    123	5940	0	0	0	1.035	100	1	5940	1900.8	0	0	0	0	0	0	594	0	0	0	0
    125	6000	0	0	0	1.035	100	1	6000	1920	0	0	0	0	0	0	600	0	0	0	0
    142	2768	0	0	0	1.035	100	1	2768	1107.2	0	0	0	0	0	0	276.8	0	0	0	0
    146	5500	0	0	0	1.035	100	1	5500	1760	0	0	0	0	0	0	550	0	0	0	0
    149	6101	0	0	0	1.035	100	1	6101	1952	0	0	0	0	0	0	610	0	0	0	0
    186	5510	0	0	0	1.035	100	1	5510	1763.2	0	0	0	0	0	0	551	0	0	0	0
    111	2209.5	0	0	0	1.035	100	1	2209.5	0	0	0	0	0	0	0	9999	0	0	0	0
    106	1483.5	0	0	0	1.035	100	1	1483.5	0	0	0	0	0	0	0	9999	0	0	0	0
    1	1200	0	0	0	1.035	100	1	1200	0	0	0	0	0	0	0	9999	0	0	0	0
    124	196.5	0	0	0	1.035	100	1	196.5	0	0	0	0	0	0	0	9999	0	0	0	0
    147	1200	0	0	0	1.035	100	1	1200	0	0	0	0	0	0	0	9999	0	0	0	0
    163	1200	0	0	0	1.035	100	1	1200	0	0	0	0	0	0	0	9999	0	0	0	0
    174	499.5	0	0	0	1.035	100	1	499.5	0	0	0	0	0	0	0	9999	0	0	0	0
    196	799.5	0	0	0	1.035	100	1	799.5	0	0	0	0	0	0	0	9999	0	0	0	0
];

mpc.branch = [
    1	2	0.003	0.005	0	6000	6000	6000	0.038	0	1	-360	360
    4	7	0.026	0.005694	0	10000	10000	10000	0.027	0	1	-360	360
    4	3	0.035	0.042	0	10000	10000	10000	0.009	0	1	-360	360
    5	3	0.012	0.001427	0	10000	10000	10000	0.026	0	1	-360	360
    6	7	0.044	0.038	0	10000	10000	10000	0.006	0	1	-360	360
    6	3	0.041	0.005709	0	10000	10000	10000	0.048	0	1	-360	360
    8	7	0.048	0.046	0	10000	10000	10000	0.031	0	1	-360	360
    9	7	0.043	0.024	0	10000	10000	10000	0.03	0	1	-360	360
    10	7	0.048	0.043	0	10000	10000	10000	0.023	0	1	-360	360
    10	15	0.029	0.004048	0	10000	10000	10000	0.05	0	1	-360	360
    11	7	0.008	0.003724	0	10000	10000	10000	0.005	0	1	-360	360
    11	13	0.022	0.043	0	10000	10000	10000	0.039	0	1	-360	360
    12	7	0.032	0.003713	0	10000	10000	10000	0.05	0	1	-360	360
    12	13	0.007	0.039	0	10000	10000	10000	0.035	0	1	-360	360
    14	7	0.037	0.004048	0	10000	10000	10000	0.006	0	1	-360	360
    14	15	0.033	0.042	0	10000	10000	10000	0.05	0	1	-360	360
    15	16	0.032	0.017	0	10000	10000	10000	0.033	0	1	-360	360
    17	19	0.029	0.013	0	10000	10000	10000	0.042	0	1	-360	360
    18	3	0.007	0.042	0	10000	10000	10000	0.044	0	1	-360	360
    18	17	0.01	0.006231	0	10000	10000	10000	0.02	0	1	-360	360
    19	3	0.021	0.006259	0	10000	10000	10000	0.02	0	1	-360	360
    20	17	0.036	0.049	0	10000	10000	10000	0.019	0	1	-360	360
    21	2	0.008	0.013	0	10000	10000	10000	0.03	0	1	-360	360
    21	20	0.029	0.011516	0	10000	10000	10000	0.016	0	1	-360	360
    22	17	0.046	0.01	0	10000	10000	10000	0.009	0	1	-360	360
    22	23	0.05	0.011537	0	10000	10000	10000	0.028	0	1	-360	360
    23	2	0.008	0.013	0	10000	10000	10000	0.03	0	1	-360	360
    24	15	0.03	0.041	0	10000	10000	10000	0.006	0	1	-360	360
    25	15	0.006	0.042	0	10000	10000	10000	0.024	0	1	-360	360
    26	2	0.013	0.007	0	10000	10000	10000	0.011	0	1	-360	360
    27	26	0.019	0.006392	0	10000	10000	10000	0.011	0	1	-360	360
    28	27	0.01	0.028	0	10000	10000	10000	0.049	0	1	-360	360
    30	29	0.046	0.024	0	10000	10000	10000	0.035	0	1	-360	360
    31	15	0.024	0.02	0	10000	10000	10000	0.041	0	1	-360	360
    31	30	0.004	0.008096	0	10000	10000	10000	0.005	0	1	-360	360
    32	3	0.008	0.0049	0	10000	10000	10000	0.043	0	1	-360	360
    32	29	0.048	0.025	0	10000	10000	10000	0.018	0	1	-360	360
    33	9	0.046	0.0072	0	10000	10000	10000	0.003	0	1	-360	360
    34	8	0.027	0.007231	0	10000	10000	10000	0.006	0	1	-360	360
    35	24	0.037	0.009048	0	10000	10000	10000	0.023	0	1	-360	360
    36	25	0.034	0.009048	0	10000	10000	10000	0.031	0	1	-360	360
    37	46	0.034	0.032	0	10000	10000	10000	0.012	0	1	-360	360
    37	42	0.041	0.004644	0	10000	10000	10000	0.004	0	1	-360	360
    37	55	0.03	0.007031	0	10000	10000	10000	0.006	0	1	-360	360
    38	37	0.017	0.001652	0	10000	10000	10000	0.002	0	1	-360	360
    39	37	0.004	0.001652	0	10000	10000	10000	0.024	0	1	-360	360
    40	41	0.033	0.049	0	10000	10000	10000	0.024	0	1	-360	360
    40	44	0.047	0.003324	0	10000	10000	10000	0.026	0	1	-360	360
    41	46	0.047	0.004644	0	10000	10000	10000	0.045	0	1	-360	360
    42	41	0.048	0.03	0	10000	10000	10000	0.041	0	1	-360	360
    43	41	0.039	0.025	0	10000	10000	10000	0.002	0	1	-360	360
    45	44	0.038	0.048	0	10000	10000	10000	0.031	0	1	-360	360
    47	41	0.002	0.003324	0	10000	10000	10000	0.029	0	1	-360	360
    47	44	0.033	0.029	0	10000	10000	10000	0.008	0	1	-360	360
    48	44	0.014	0.005325	0	10000	10000	10000	0.046	0	1	-360	360
    48	49	0.008	0.019	0	10000	10000	10000	0.032	0	1	-360	360
    50	37	0.046	0.042	0	10000	10000	10000	0.039	0	1	-360	360
    50	49	0.02	0.003994	0	10000	10000	10000	0.038	0	1	-360	360
    51	44	0.014	0.036	0	10000	10000	10000	0.004	0	1	-360	360
    51	49	0.029	0.005325	0	10000	10000	10000	0.045	0	1	-360	360
    52	37	0.032	0.003994	0	10000	10000	10000	0.008	0	1	-360	360
    52	49	0.002	0.023	0	10000	10000	10000	0.001	0	1	-360	360
    53	43	0.03	0.007031	0	10000	10000	10000	0.006	0	1	-360	360
    54	41	0.021	0.007031	0	10000	10000	10000	0.021	0	1	-360	360
    56	57	0.021	0.017	0	10000	10000	10000	0.02	0	1	-360	360
    56	58	0.006	0.006	0	10000	10000	10000	0.042	0	1	-360	360
    57	60	0.034	0.003158	0	10000	10000	10000	0.042	0	1	-360	360
    59	56	0.028	0.003005	0	10000	10000	10000	0.038	0	1	-360	360
    61	60	0.036	0.018	0	10000	10000	10000	0.007	0	1	-360	360
    62	63	0.01	0.038	0	10000	10000	10000	0.033	0	1	-360	360
    62	58	0.032	0.006546	0	10000	10000	10000	0.038	0	1	-360	360
    63	61	0.042	0.007644	0	10000	10000	10000	0.004	0	1	-360	360
    64	63	0.007	0.024	0	10000	10000	10000	0.031	0	1	-360	360
    65	71	0.024	0.011	0	10000	10000	10000	0.029	0	1	-360	360
    65	73	0.039	0.024	0	10000	10000	10000	0.036	0	1	-360	360
    65	75	0.008	0.044	0	10000	10000	10000	0.017	0	1	-360	360
    65	76	0.019	0.014	0	10000	10000	10000	0.017	0	1	-360	360
    66	59	0.01	0.049	0	10000	10000	10000	0.029	0	1	-360	360
    67	66	0.033	0.016002	0	10000	10000	10000	0.041	0	1	-360	360
    68	59	0.003	0.036	0	10000	10000	10000	0.004	0	1	-360	360
    69	68	0.036	0.016155	0	10000	10000	10000	0.022	0	1	-360	360
    71	70	0.04	0.017185	0	10000	10000	10000	0.031	0	1	-360	360
    73	72	0.033	0.017374	0	10000	10000	10000	0.041	0	1	-360	360
    74	67	0.024	0.03	0	10000	10000	10000	0.037	0	1	-360	360
    74	69	0.043	0.006	0	10000	10000	10000	0.027	0	1	-360	360
    74	70	0.04	0.011	0	10000	10000	10000	0.027	0	1	-360	360
    74	72	0.036	0.046	0	10000	10000	10000	0.015	0	1	-360	360
    75	79	0.046	0.007585	0	10000	10000	10000	0.001	0	1	-360	360
    76	80	0.027	0.007585	0	10000	10000	10000	0.024	0	1	-360	360
    77	81	0.008	0.003	0	10000	10000	10000	0.013	0	1	-360	360
    78	81	0.046	0.039	0	10000	10000	10000	0.011	0	1	-360	360
    81	79	0.031	0.012	0	10000	10000	10000	0.034	0	1	-360	360
    81	80	0.03	0.044	0	10000	10000	10000	0.043	0	1	-360	360
    82	56	0.009	0.005996	0	10000	10000	10000	0.05	0	1	-360	360
    83	82	0.034	0.036	0	10000	10000	10000	0.033	0	1	-360	360
    84	64	0.027	0.005996	0	10000	10000	10000	0.025	0	1	-360	360
    85	63	0.035	0.006306	0	10000	10000	10000	0.003	0	1	-360	360
    86	77	0.021	0.014019	0	10000	10000	10000	0.015	0	1	-360	360
    87	82	0.021	0.005635	0	10000	10000	10000	0.03	0	1	-360	360
    88	83	0.022	0.005635	0	10000	10000	10000	0.013	0	1	-360	360
    89	78	0.02	0.014019	0	10000	10000	10000	0.044	0	1	-360	360
    90	93	0.047	0.001	0	10000	10000	10000	0.033	0	1	-360	360
    90	101	0.013	0.027	0	10000	10000	10000	0.007	0	1	-360	360
    90	123	0.01	0.005966	0	10000	10000	10000	0.041	0	1	-360	360
    91	90	0.025	0.047	0	10000	10000	10000	0.041	0	1	-360	360
    92	90	0.049	0.047	0	10000	10000	10000	0.039	0	1	-360	360
    94	93	0.038	0.016879	0	10000	10000	10000	0.046	0	1	-360	360
    95	105	0.031	0.003	0	10000	10000	10000	0.014	0	1	-360	360
    96	121	0.034	0.003594	0	10000	10000	10000	0.037	0	1	-360	360
    96	122	0.026	0.003594	0	10000	10000	10000	0.022	0	1	-360	360
    97	113	0.04	0.012698	0	10000	10000	10000	0.049	0	1	-360	360
    98	97	0.049	0.014	0	10000	10000	10000	0.038	0	1	-360	360
    100	94	0.004	0.011	0	10000	10000	10000	0.002	0	1	-360	360
    100	102	0.049	0.036	0	10000	10000	10000	0.006	0	1	-360	360
    100	103	0.028	0.007	0	10000	10000	10000	0.019	0	1	-360	360
    102	101	0.007	0.016879	0	10000	10000	10000	0.034	0	1	-360	360
    104	103	0.037	0.05	0	10000	10000	10000	0.033	0	1	-360	360
    105	99	0.003	0.005727	0	10000	10000	10000	0.016	0	1	-360	360
    106	104	0.036	0.044	0	10000	10000	10000	0.021	0	1	-360	360
    106	113	0.038	0.02	0	10000	10000	10000	0.024	0	1	-360	360
    107	95	0.02	0.007	0	10000	10000	10000	0.034	0	1	-360	360
    108	109	0.036	0.01116	0	10000	10000	10000	0.013	0	1	-360	360
    108	117	0.037	0.022	0	10000	10000	10000	0.002	0	1	-360	360
    109	110	0.043	0.025	0	10000	10000	10000	0.047	0	1	-360	360
    112	111	0.012	0.044	0	10000	10000	10000	0.035	0	1	-360	360
    114	99	0.012	0.045	0	10000	10000	10000	0.003	0	1	-360	360
    114	115	0.037	0.007192	0	10000	10000	10000	0.007	0	1	-360	360
    115	116	0.04	0.023	0	10000	10000	10000	0.026	0	1	-360	360
    116	99	0.049	0.007192	0	10000	10000	10000	0.024	0	1	-360	360
    117	107	0.02	0.006674	0	10000	10000	10000	0.043	0	1	-360	360
    118	111	0.05	0.005	0	10000	10000	10000	0.042	0	1	-360	360
    119	100	0.006	0.005	0	10000	10000	10000	0.028	0	1	-360	360
    119	96	0.04	0.005247	0	10000	10000	10000	0.008	0	1	-360	360
    120	100	0.006	0.037	0	10000	10000	10000	0.007	0	1	-360	360
    120	96	0.027	0.005247	0	10000	10000	10000	0.03	0	1	-360	360
    121	99	0.03	0.003	0	10000	10000	10000	0.031	0	1	-360	360
    122	99	0.031	0.016	0	10000	10000	10000	0.042	0	1	-360	360
    123	111	0.013	0.005794	0	10000	10000	10000	0.008	0	1	-360	360
    124	100	0.047	0.059148	0	10000	10000	10000	0.036	0	1	-360	360
    126	96	0.023	0.023	0	10000	10000	10000	0.013	0	1	-360	360
    126	125	0.011	0.004261	0	10000	10000	10000	0.029	0	1	-360	360
    127	95	0.04	0.006392	0	10000	10000	10000	0.036	0	1	-360	360
    127	125	0.049	0.011	0	10000	10000	10000	0.023	0	1	-360	360
    128	91	0.007	0.015555	0	10000	10000	10000	0.026	0	1	-360	360
    129	118	0.012	0.012186	0	10000	10000	10000	0.007	0	1	-360	360
    130	112	0.025	0.012186	0	10000	10000	10000	0.035	0	1	-360	360
    131	92	0.046	0.015555	0	10000	10000	10000	0.016	0	1	-360	360
    132	135	0.01	0.041	0	10000	10000	10000	0.043	0	1	-360	360
    132	165	0.011	0.006103	0	10000	10000	10000	0.033	0	1	-360	360
    133	132	0.018	0.009	0	10000	10000	10000	0.003	0	1	-360	360
    134	132	0.042	0.047	0	10000	10000	10000	0.006	0	1	-360	360
    136	146	0.024	0.036	0	10000	10000	10000	0.048	0	1	-360	360
    136	152	0.074	0.033638	0	10000	10000	10000	0.09	0	1	-360	360
    138	146	0.06	0.056	0	10000	10000	10000	0.072	0	1	-360	360
    138	154	0.047	0.024347	0	10000	10000	10000	0.058	0	1	-360	360
    139	146	0.016	0.09	0	10000	10000	10000	0.086	0	1	-360	360
    139	155	0.014	0.024386	0	10000	10000	10000	0.036	0	1	-360	360
    140	167	0.019	0.002	0	10000	10000	10000	0.018	0	1	-360	360
    141	167	0.05	0.006	0	10000	10000	10000	0.05	0	1	-360	360
    142	167	0.007	0.046	0	10000	10000	10000	0.015	0	1	-360	360
    143	167	0.034	0.017	0	10000	10000	10000	0.044	0	1	-360	360
    145	161	0.034	0.047	0	10000	10000	10000	0.014	0	1	-360	360
    146	137	0.008	0.042	0	10000	10000	10000	0.02	0	1	-360	360
    147	148	0.029	0.049	0	10000	10000	10000	0.027	0	1	-360	360
    148	164	0.04	0.003092	0	10000	10000	10000	0.049	0	1	-360	360
    149	151	0.036	0.036	0	10000	10000	10000	0.04	0	1	-360	360
    150	133	0.009	0.00828	0	10000	10000	10000	0.047	0	1	-360	360
    150	149	0.041	0.034	0	10000	10000	10000	0.013	0	1	-360	360
    151	134	0.05	0.008274	0	10000	10000	10000	0.003	0	1	-360	360
    152	149	0.04	0.04	0	10000	10000	10000	0.056	0	1	-360	360
    153	149	0.033	0.042	0	10000	10000	10000	0.028	0	1	-360	360
    153	137	0.037	0.016773	0	10000	10000	10000	0.04	0	1	-360	360
    154	156	0.052	0.01	0	10000	10000	10000	0.076	0	1	-360	360
    155	156	0.056	0.024	0	10000	10000	10000	0.075	0	1	-360	360
    157	156	0.014	0.019	0	10000	10000	10000	0.032	0	1	-360	360
    158	156	0.006	0.044	0	10000	10000	10000	0.018	0	1	-360	360
    159	145	0.045	0.05	0	10000	10000	10000	0.034	0	1	-360	360
    159	164	0.032	0.006392	0	10000	10000	10000	0.003	0	1	-360	360
    160	145	0.007	0.026	0	10000	10000	10000	0.013	0	1	-360	360
    160	143	0.022	0.0109	0	10000	10000	10000	0.047	0	1	-360	360
    161	144	0.03	0.0109	0	10000	10000	10000	0.034	0	1	-360	360
    162	145	0.027	0.01	0	10000	10000	10000	0.008	0	1	-360	360
    162	185	0.041	0.007031	0	10000	10000	10000	0.034	0	1	-360	360
    163	167	0.026	0.014	0	10000	10000	10000	0.032	0	1	-360	360
    164	135	0.018	0.006128	0	10000	10000	10000	0.031	0	1	-360	360
    165	164	0.022	0.004	0	10000	10000	10000	0.024	0	1	-360	360
    166	164	0.004	0.018	0	10000	10000	10000	0.024	0	1	-360	360
    167	144	0.025	0.048	0	10000	10000	10000	0.016	0	1	-360	360
    168	156	0.03	0.007158	0	10000	10000	10000	0.027	0	1	-360	360
    169	188	0.041	0.014019	0	10000	10000	10000	0.03	0	1	-360	360
    170	174	0.036	0.042	0	10000	10000	10000	0.027	0	1	-360	360
    171	174	0.044	0.027	0	10000	10000	10000	0.039	0	1	-360	360
    172	174	0.007	0.002	0	10000	10000	10000	0.011	0	1	-360	360
    173	156	0.036	0.033	0	10000	10000	10000	0.042	0	1	-360	360
    173	174	0.025	0.007158	0	10000	10000	10000	0.009	0	1	-360	360
    174	168	0.028	0.047	0	10000	10000	10000	0.044	0	1	-360	360
    175	145	0.037	0.007313	0	10000	10000	10000	0.05	0	1	-360	360
    176	175	0.021	0.015	0	10000	10000	10000	0.028	0	1	-360	360
    176	177	0.029	0.007313	0	10000	10000	10000	0.015	0	1	-360	360
    177	145	0.043	0.014	0	10000	10000	10000	0.026	0	1	-360	360
    178	176	0.049	0.013	0	10000	10000	10000	0.007	0	1	-360	360
    179	176	0.018	0.01	0	10000	10000	10000	0.042	0	1	-360	360
    180	132	0.012	0.003	0	10000	10000	10000	0.023	0	1	-360	360
    181	141	0.01	0.0072	0	10000	10000	10000	0.05	0	1	-360	360
    182	145	0.031	0.005996	0	10000	10000	10000	0.021	0	1	-360	360
    183	145	0.031	0.005996	0	10000	10000	10000	0.021	0	1	-360	360
    184	162	0.019	0.006306	0	10000	10000	10000	0.019	0	1	-360	360
    186	166	0.026	0.007031	0	10000	10000	10000	0.027	0	1	-360	360
    186	149	0.0401612	0.029207	0	10000	10000	10000	0.0782049	0	1	-360	360
    187	157	0.016	0.015555	0	10000	10000	10000	0.045	0	1	-360	360
    189	170	0.05	0.014019	0	10000	10000	10000	0.042	0	1	-360	360
    190	171	0.012	0.012186	0	10000	10000	10000	0.027	0	1	-360	360
    191	178	0.038	0.012186	0	10000	10000	10000	0.014	0	1	-360	360
    192	178	0.018	0.009048	0	10000	10000	10000	0.014	0	1	-360	360
    193	179	0.038	0.009048	0	10000	10000	10000	0.048	0	1	-360	360
    194	180	0.049	0.005635	0	10000	10000	10000	0.017	0	1	-360	360
    195	132	0.005	0.005635	0	10000	10000	10000	0.028	0	1	-360	360
    196	158	0.04	0.015555	0	10000	10000	10000	0.049	0	1	-360	360
    197	140	0.037	0.007231	0	10000	10000	10000	0.006	0	1	-360	360
    128	190	0.037	0.007231	0	10000	10000	10000	0.006	0	1	-360	360
    131	189	0.037	0.007231	0	10000	10000	10000	0.006	0	1	-360	360
    86	188	0.037	0.007231	0	10000	10000	10000	0.006	0	1	-360	360
    89	187	0.037	0.007231	0	10000	10000	10000	0.006	0	1	-360	360
    87	194	0.037	0.007231	0	10000	10000	10000	0.006	0	1	-360	360
    84	183	0.037	0.007231	0	10000	10000	10000	0.006	0	1	-360	360
    85	182	0.037	0.007231	0	10000	10000	10000	0.006	0	1	-360	360
    54	184	0.037	0.007231	0	10000	10000	10000	0.006	0	1	-360	360
    53	185	0.037	0.007231	0	10000	10000	10000	0.006	0	1	-360	360
    33	181	0.037	0.007231	0	10000	10000	10000	0.006	0	1	-360	360
    34	197	0.037	0.007231	0	10000	10000	10000	0.006	0	1	-360	360
    35	191	0.037	0.007231	0	10000	10000	10000	0.006	0	1	-360	360
    36	192	0.037	0.007231	0	10000	10000	10000	0.006	0	1	-360	360
    85	63	0.035	0.006306	0	10000	10000	10000	0.003	0	1	-360	360
    17	19	0.029	0.013	0	10000	10000	10000	0.042	0	1	-360	360
    19	3	0.021	0.006259	0	10000	10000	10000	0.02	0	1	-360	360
    23	2	0.008	0.013	0	10000	10000	10000	0.03	0	1	-360	360
    37	55	0.03	0.007031	0	10000	10000	10000	0.006	0	1	-360	360
    54	41	0.021	0.007031	0	10000	10000	10000	0.021	0	1	-360	360
    54	184	0.037	0.007231	0	10000	10000	10000	0.006	0	1	-360	360
    59	56	0.028	0.003005	0	10000	10000	10000	0.038	0	1	-360	360
    63	61	0.042	0.007644	0	10000	10000	10000	0.004	0	1	-360	360
    64	63	0.007	0.024	0	10000	10000	10000	0.031	0	1	-360	360
    65	71	0.024	0.011	0	10000	10000	10000	0.029	0	1	-360	360
    68	59	0.003	0.036	0	10000	10000	10000	0.004	0	1	-360	360
    69	68	0.036	0.016155	0	10000	10000	10000	0.022	0	1	-360	360
    71	70	0.04	0.017185	0	10000	10000	10000	0.031	0	1	-360	360
    74	70	0.04	0.011	0	10000	10000	10000	0.027	0	1	-360	360
    74	69	0.043	0.006	0	10000	10000	10000	0.027	0	1	-360	360
    83	82	0.034	0.036	0	10000	10000	10000	0.033	0	1	-360	360
    84	183	0.037	0.007231	0	10000	10000	10000	0.006	0	1	-360	360
    84	64	0.027	0.005996	0	10000	10000	10000	0.025	0	1	-360	360
    85	182	0.037	0.007231	0	10000	10000	10000	0.006	0	1	-360	360
    87	82	0.021	0.005635	0	10000	10000	10000	0.03	0	1	-360	360
    100	94	0.004	0.011	0	10000	10000	10000	0.002	0	1	-360	360
    138	146	0.06	0.056	0	10000	10000	10000	0.072	0	1	-360	360
    138	154	0.047	0.024347	0	10000	10000	10000	0.058	0	1	-360	360
    154	156	0.052	0.01	0	10000	10000	10000	0.076	0	1	-360	360
    159	145	0.045	0.05	0	10000	10000	10000	0.034	0	1	-360	360
    159	164	0.032	0.006392	0	10000	10000	10000	0.003	0	1	-360	360
    162	145	0.027	0.01	0	10000	10000	10000	0.008	0	1	-360	360
    182	145	0.031	0.005996	0	10000	10000	10000	0.021	0	1	-360	360
    184	162	0.019	0.006306	0	10000	10000	10000	0.019	0	1	-360	360
    94	93	0.038	0.016879	0	10000	10000	10000	0.046	0	1	-360	360
    95	105	0.031	0.003	0	10000	10000	10000	0.014	0	1	-360	360
    96	121	0.034	0.003594	0	10000	10000	10000	0.037	0	1	-360	360
    105	99	0.003	0.005727	0	10000	10000	10000	0.016	0	1	-360	360
    119	100	0.006	0.005	0	10000	10000	10000	0.028	0	1	-360	360
    119	96	0.04	0.005247	0	10000	10000	10000	0.008	0	1	-360	360
    121	99	0.03	0.003	0	10000	10000	10000	0.031	0	1	-360	360
    123	111	0.013	0.005794	0	10000	10000	10000	0.008	0	1	-360	360
    150	149	0.041	0.034	0	10000	10000	10000	0.013	0	1	-360	360
    166	164	0.004	0.018	0	10000	10000	10000	0.024	0	1	-360	360
    186	166	0.026	0.007031	0	10000	10000	10000	0.027	0	1	-360	360

];

mpc.gencost = [
    2	2	0	0	0	4.110686655	0.01
    2	0	0	0	0	0	0
    2	2	0	0	0	2.663396243	0.01
    2	0	0	0	0	0	0
    2	0	0	0	0	0	0
    2	2	0	0	0	1.479003737	0.01
    2	0	0	0	0	0	0
    2	2	0	0	0	3.223149027	0.01
    2	2	0	0	0	1.050383491	0.01
    2	0	0	0	0	0	0
    2	2	0	0	0	3.005303497	0.01
    2	0	0	0	0	0	0
    2	2	0	0	0	2.061961025	0.01
    2	2	0	0	0	2.639118446	0.01
    2	2	0	0	0	2.078908455	0.01
    2	2	0	0	0	2.199216079	0.01
    2	2	0	0	0	1.972915515	0.01
    2	2	0	0	0	1.91208827	0.01
    2	2	0	0	0	1.381984264	0.01
    2	2	0	0	0	6.517874405	0.01
    2	0	0	0	0	0	0
    2	2	0	0	0	2.768943206	0.01
    2	2	0	0	0	4.207832242	0.01
    2	2	0	0	0	1.190687488	0.01
    2	2	0	0	0	1.192497704	0.01
    2	2	0	0	0	1.736772683	0.01
    2	2	0	0	0	2.326433502	0.01
    2	2	0	0	0	1.174079505	0.01
    2	0	0	0	0	0	0
    2	2	0	0	0	3.262354323	0.01
    2	2	0	0	0	3.256459613	0.01
    2	2	0	0	0	3	0.01
    2	0	0	0	0	0	0
    2	0	0	0	0	0	0
    2	0	0	0	0	0	0
    2	0	0	0	0	0	0
    2	0	0	0	0	0	0
    2	0	0	0	0	0	0
    2	0	0	0	0	0	0
    2	0	0	0	0	0	0
];

mpc.Gbus = [
    1	0	0	0	1	6.3
    2	0	0.0102	0	1	6.3
    3	0	0.0171	0	1	6.3
    4	0	0.0152	0	1	6.3
    5	0	0.0171	0	1	6.3
    6	0	0.0083	0	1	6.3
    7	0	0.0135	0	1	6.3
    8	0	0.0089	0	1	6.3
    9	0	0	0	1	6.3
    10	0	0.0187	0	1	6.3
    11	0	0.0135	0	1	6.3
    12	0	0.0148	0	1	6.3
    13	0	0	0	1	6.3
    14	0	0.0154	0	1	6.3
    15	0	0.0119	0	1	6.3
    16	0	0.0065	0	1	6.3
    17	0	0.0102	0	1	6.3
    18	0	0.0107	0	1	6.3
    19	0	0.009	0	1	6.3
    20	0	0.0081	0	1	6.3
    21	0	0.0073	0	1	6.3
    22	0	0.0105	0	1	6.3
    23	0	0.0177	0	1	6.3
    24	0	0.0078	0	1	6.3
    25	0	0	0	1	6.3
    26	0	0.0152	0	1	6.3
    27	0	0.0168	0	1	6.3
    28	0	0.0179	0	1	6.3
    29	0	0.011	0	1	6.3
    30	0	0.0108	0	1	6.3
    31	0	0.0126	0	1	6.3
    32	0	0.0115	0	1	6.3
    33	0	0.0154	0	1	6.3
    34	0	0.0164	0	1	6.3
    35	0	0.0163	0	1	6.3
    36	0	0.0132	0	1	6.3
    37	0	0.0165	0	1	6.3
    38	0	0.0074	0	1	6.3
    39	0	0	0	1	6.3
    40	0	0.0094	0	1	6.3
    41	0	0.0167	0	1	6.3
    42	0	0.0126	0	1	6.3
    43	0	0.0165	0	1	6.3
    44	0	0.0147	0	1	6.3
    45	0	0.0143	0	1	6.3
    46	0	0.018	0	1	6.3
    47	0	0.0185	0	1	6.3
    48	0	0.0146	0	1	6.3
    49	0	0.0164	0	1	6.3
    50	0	0.0097	0	1	6.3
    51	0	0.0191	0	1	6.3
    52	0	0.0083	0	1	6.3
    53	0	0.0189	0	1	6.3
    54	0	0.0078	0	1	6.3
    55	0	0.0177	0	1	6.3
    56	0	0.0176	0	1	6.3
    57	0	0.0131	0	1	6.3
    58	0	0.018	0	1	6.3
    59	0	0.0136	0	1	6.3
    60	0	0.0082	0	1	6.3
    61	0	0.0101	0	1	6.3
    62	0	0.0105	0	1	6.3
    63	0	0.0087	0	1	6.3
    64	0	0.015	0	1	6.3
    65	0	0.0078	0	1	6.3
    66	0	0.016	0	1	6.3
    67	0	0.0071	0	1	6.3
    68	0	0.0107	0	1	6.3
    69	0	0.0169	0	1	6.3
    70	0	0.0111	0	1	6.3
    71	0	0.0136	0	1	6.3
    72	0	0.0095	0	1	6.3
    73	0	0.0126	0	1	6.3
    74	0	0.0184	0	1	6.3
    75	0	0.0188	0	1	6.3
    76	0	0.0146	0	1	6.3
    77	0	0.0105	0	1	6.3
    78	0	0.0107	0	1	6.3
    79	0	0	0	1	6.3
    80	0	0.0061	0	1	6.3
    81	0	0.0031	0	1	6.3
    82	0	0.0049	0	1	6.3
    83	0	0.0031	0	1	6.3
    84	0	0.005	0	1	6.3
    85	0	0.005	0	1	6.3
    86	0	0.0037	0	1	6.3
    87	0	0.005	0	1	6.3
    88	0	0.0049	0	1	6.3
    89	0	0.0028	0	1	6.3
    90	0	0.004	0	1	6.3
    91	0	0.0022	0	1	6.3
    92	0	0.0058	0	1	6.3
    93	0	0.0059	0	1	6.3
    94	0	0.0024	0	1	6.3
    95	0	0.0041	0	1	6.3
    96	0	0.003	0	1	6.3
    97	0	0	0	1	6.3
    98	0	0.0052	0	1	6.3
    99	0	0.0035	0	1	6.3
    100	0	0.0036	0	1	6.3
    101	0	0.0043	0	1	6.3
    102	0	0.0052	0	1	6.3
    103	0	0.005	0	1	6.3
    104	0	0.0027	0	1	6.3
    105	0	0.0052	0	1	6.3
    106	0	0.0036	0	1	6.3
    107	0	0.005	0	1	6.3
    108	0	0.0033	0	1	6.3
    109	0	0.0061	0	1	6.3
    110	0	0.0055	0	1	6.3
    111	0	0.003	0	1	6.3
    112	0	0.0024	0	1	6.3
    113	0	0.005	0	1	6.3
    114	0	0.0055	0	1	6.3
    115	0	0.0042	0	1	6.3
    116	0	0.0042	0	1	6.3
    117	0	0.0032	0	1	6.3
    118	0	0.0025	0	1	6.3
    119	0	0.0043	0	1	6.3
    120	0	0.0056	0	1	6.3
    121	0	0.0175	0	1	6.3
    122	0	0.0144	0	1	6.3
    123	0	0.0198	0	1	6.3
    124	0	0.0137	0	1	6.3
    125	0	0.0142	0	1	6.3
    126	0	0.0082	0	1	6.3
    127	0	0.0076	0	1	6.3
    128	0	0.0102	0	1	6.3
    129	0	0.0143	0	1	6.3
    130	0	0.0088	0	1	6.3
    131	0	0.0198	0	1	6.3
    132	0	0.0144	0	1	6.3
    133	0	0.0159	0	1	6.3
    134	0	0.0194	0	1	6.3
    135	0	0.0203	0	1	6.3
    136	0	0.0394	0	1	6.3
    137	0	0.0204	0	1	6.3
    138	0	0.0501	0	1	6.3
    139	0	0.0259	0	1	6.3
    140	0	0.0302	0	1	6.3
    141	0	0.0499	0	1	6.3
    142	0	0.0479	0	1	6.3
    143	0	0.0525	0	1	6.3
    144	0	0.0305	0	1	6.3
    145	0	0.0503	0	1	6.3
    146	0	0.0512	0	1	6.3
    147	0	0.0452	0	1	6.3
    148	0	0.0382	0	1	6.3
    149	0	0.0234	0	1	6.3
    150	0	0.0497	0	1	6.3
    151	0	0.0505	0	1	6.3
    152	0	0.0274	0	1	6.3
    153	0	0.0505	0	1	6.3
    154	0	0.0443	0	1	6.3
    155	0	0.0335	0	1	6.3
    156	0	0.0306	0	1	6.3
    157	0	0.0249	0	1	6.3
    158	0	0.052	0	1	6.3
    159	0	0.0193	0	1	6.3
    160	0	0.0429	0	1	6.3
    161	0	0.0289	0	1	6.3
    162	0	0.0295	0	1	6.3
    163	0	0.0524	0	1	6.3
    164	0	0.0438	0	1	6.3
    165	0	0.0233	0	1	6.3
    166	0	0.0408	0	1	6.3
    167	0	0.0284	0	1	6.3
    168	0	0.0354	0	1	6.3
    169	0	0.0466	0	1	6.3
    170	0	0.0458	0	1	6.3
    171	0	0.0285	0	1	6.3
];

mpc.Gline = [
    1	2	2.35	0	0.8
    2	3	1.94	0	0.8
    4	5	2.235	0	0.8
    5	6	2.685	0	0.8
    6	7	1.89	0	0.8
    7	8	2.28	0	0.8
    8	9	1.94	0	0.8
    10	11	1.835	0	0.8
    11	12	2.2	0	0.8
    12	44	2.2	0	0.8
    14	15	1.845	0	0.8
    15	16	2.68	0	0.8
    16	17	2.1	0	0.8
    17	18	1.975	0	0.8
    18	19	1.855	0	0.8
    18	24	2.105	0	0.8
    20	21	2.215	0	0.8
    21	22	1.855	0	0.8
    22	23	2.46	0	0.8
    23	46	2.22	0	0.8
    24	29	2.17	0	0.8
    26	27	1.935	0	0.8
    26	35	2.265	0	0.8
    27	28	2.365	0	0.8
    28	29	2.585	0	0.8
    29	30	2.395	0	0.8
    31	32	2.12	0	0.8
    32	33	1.875	0	0.8
    32	42	2.765	0	0.8
    32	33	2.555	0	0.8
    33	34	2.555	0	0.8
    34	56	2.205	0	0.8
    35	36	2.195	0	0.8
    36	37	2.69	0	0.8
    37	38	1.955	0	0.8
    38	39	1.945	0	0.8
    38	40	2.565	0	0.8
    41	42	2.625	0	0.8
    42	43	2.215	0	0.8
    43	88	2	0	0.8
    44	45	2.765	0	0.8
    45	46	2.765	0	0.8
    47	48	2.405	0	0.8
    48	49	2.77	0	0.8
    50	51	2.75	0	0.8
    51	52	2.395	0	0.8
    52	53	2.215	0	0.8
    54	55	2.89	0	0.8
    55	61	2.165	0	0.8
    55	69	2.165	0	0.8
    57	58	3.075	0	0.8
    58	59	2.495	0	0.8
    59	60	2.71	0	0.8
    60	62	2.71	0	0.8
    61	62	2.78	0	0.8
    62	63	2.74	0	0.8
    63	71	2.67	0	0.8
    64	65	2.575	0	0.8
    65	66	3.065	0	0.8
    66	67	3.04	0	0.8
    67	68	3.135	0	0.8
    68	74	2.615	0	0.8
    69	70	2.94	0	0.8
    70	121	2.4	0	0.8
    72	73	3.01	0	0.8
    73	136	2.375	0	0.8
    74	75	2.12	0	0.8
    75	76	2.42	0	0.8
    76	77	2.42	0	0.8
    77	78	2.615	0	0.8
    78	146	2.375	0	0.8
    80	81	2.48	0	0.8
    81	82	2.415	0	0.8
    82	83	1.95	0	0.8
    83	84	2.565	0	0.8
    85	86	2.055	0	0.8
    86	87	1.995	0	0.8
    87	90	1.93	0	0.8
    88	89	1.845	0	0.8
    89	90	2.11	0	0.8
    91	92	1.885	0	0.8
    91	98	1.825	0	0.8
    92	93	2.195	0	0.8
    93	94	2.195	0	0.8
    93	114	2.33	0	0.8
    94	95	2.32	0	0.8
    95	96	1.825	0	0.8
    98	99	1.805	0	0.8
    99	100	2.42	0	0.8
    100	101	2.465	0	0.8
    101	102	2.58	0	0.8
    102	103	2.61	0	0.8
    104	105	1.775	0	0.8
    105	106	2.565	0	0.8
    106	107	1.89	0	0.8
    107	108	1.885	0	0.8
    108	109	2.5	0	0.8
    109	110	1.91	0	0.8
    110	111	2.315	0	0.8
    111	115	2.405	0	0.8
    112	113	2.58	0	0.8
    113	114	2.47	0	0.8
    115	116	2.47	0	0.8
    116	117	2.47	0	0.8
    117	118	2.175	0	0.8
    119	120	2.26	0	0.8
    120	153	2.15	0	0.8
    121	122	2.795	0	0.8
    123	124	2.655	0	0.8
    124	125	2.395	0	0.8
    125	126	2.15	0	0.8
    125	130	2.445	0	0.8
    126	127	2.445	0	0.8
    127	128	2.155	0	0.8
    127	133	2.91	0	0.8
    128	129	2.22	0	0.8
    130	131	2.755	0	0.8
    131	132	2.28	0	0.8
    133	134	2.27	0	0.8
    134	135	2.605	0	0.8
    137	138	2.9	0	0.8
    138	139	3.02	0	0.8
    139	140	2.84	0	0.8
    140	141	2.82	0	0.8
    141	142	2.995	0	0.8
    143	144	2.57	0	0.8
    144	145	3.17	0	0.8
    145	152	3.09	0	0.8
    147	148	3.125	0	0.8
    148	149	3.085	0	0.8
    150	151	2.465	0	0.8
    151	152	2.405	0	0.8
    152	161	2.365	0	0.8
    153	154	2.265	0	0.8
    154	155	2.265	0	0.8
    155	156	2.94	0	0.8
    157	159	2.555	0	0.8
    157	158	2.335	0	0.8
    158	161	3.105	0	0.8
    159	160	2.945	0	0.8
    161	162	3.185	0	0.8
    162	163	2.395	0	0.8
    164	165	3.175	0	0.8
    164	167	2.37	0	0.8
    165	166	2.825	0	0.8
    167	168	2.42	0	0.8
    168	169	2.31	0	0.8
    169	170	2.965	0	0.8
    170	171	2.66	0	0.8
    8	9	1.94	0	0.8
    10	11	1.835	0	0.8
    11	12	2.2	0	0.8
    12	44	2.2	0	0.8
    32	42	2.765	0	0.8
    33	34	2.555	0	0.8
    34	56	2.205	0	0.8
    32	33	2.555	0	0.8
    38	39	1.945	0	0.8
    38	40	2.565	0	0.8
    44	45	2.765	0	0.8
    45	46	2.765	0	0.8
    57	58	3.075	0	0.8
    58	59	2.495	0	0.8
    59	60	2.71	0	0.8
    60	62	2.71	0	0.8
    62	63	2.74	0	0.8
    63	71	2.67	0	0.8
    72	73	3.01	0	0.8
    73	136	2.375	0	0.8
    80	81	2.48	0	0.8
    81	82	2.415	0	0.8
    82	83	1.95	0	0.8
    83	84	2.565	0	0.8
    93	94	2.195	0	0.8
    93	114	2.33	0	0.8
    94	95	2.32	0	0.8
    95	96	1.825	0	0.8
    111	115	2.405	0	0.8
    112	113	2.58	0	0.8
    113	114	2.47	0	0.8
    115	116	2.47	0	0.8
    116	117	2.47	0	0.8
    117	118	2.175	0	0.8
    119	120	2.26	0	0.8
    120	153	2.15	0	0.8
    153	154	2.265	0	0.8
    154	155	2.265	0	0.8
    155	156	2.94	0	0.8
    137	138	2.9	0	0.8
    138	139	3.02	0	0.8
    3	4	3.02	0	0.8
    8	10	3.02	0	0.8
    13	14	3.02	0	0.8
    19	20	3.02	0	0.8
    25	26	3.02	0	0.8
    30	31	3.02	0	0.8
    40	41	3.02	0	0.8
    46	47	3.02	0	0.8
    49	50	3.02	0	0.8
    53	54	3.02	0	0.8
    56	57	3.02	0	0.8
    63	74	3.02	0	0.8
    71	72	3.02	0	0.8
    79	80	3.02	0	0.8
    84	85	3.02	0	0.8
    90	91	3.02	0	0.8
    97	96	3.02	0	0.8
    112	111	3.02	0	0.8
    118	119	3.02	0	0.8
    122	123	3.02	0	0.8
    136	137	3.02	0	0.8
    142	143	3.02	0	0.8
    146	147	3.02	0	0.8
    149	150	3.02	0	0.8
    156	157	3.02	0	0.8
    163	164	3.02	0	0.8
];

mpc.Gsou = [
    1	0	0.25	0.6667
    9	0	0.25	0.6667
    13	0	0.1667	0.6667
    25	0	0.25	0.6667
    39	0	0.1667	0.6667
    64	0	0.0833	0.4167
    79	0	0.0833	0.6667
    97	0	0.0833	0.6667
];

mpc.gasCompositionForGasSource = [
    0.9192	0.0439	0.0053	0.0009	0	0.0076	0.0231
    0.8628	0.0701	0.0121	0.0027	0	0.005	0.0473
    0.9166	0.0388	0.0046	0.0013	0	0.0154	0.0233
    0.9219	0.0432	0.0043	0.0003	0	0.0076	0.0228
    0.9771	0.0063	0.0007	0.0002	0	0.0112	0.0045
    0.94	0	0	0	0.005	0.025	0.025
    0.9192	0.0439	0.0053	0.0009	0	0.0076	0.0231
    0.9166	0.0388	0.0046	0.0013	0	0.0154	0.0233
];

mpc.GEcon = [
    148	5
    159	13
    165	16
    139	28
    132	39
    122	45
    21	96
    77	142
];

mpc.ptg = [
    5	118	0	0.95	1.2	3
    12	104	0	0.95	1.2	3
    144	26	0	0.95	1.2	3
    32	102	0	0.95	1.2	3
    59	148	0	0.95	1.2	3
    68	143	0	0.95	1.2	3
    48	171	0	0.95	1.2	3
    46	158	0	0.95	1.2	3
];

mpc.Gcost = [
    0.116
    0.118
    0.12
    0.12
    0.12
    0.125
    0.118
    0.125
];

mpc.baseMVA = 100;
mpc.gfuIndex = [
    2
    4
    5
    7
    10
    12
    21
    29
];
mpc.windFarmIndex = 33:40;
%% 单位换算
mpc.Gbus(:,3) = mpc.Gbus(:,3) * 24; % (10^6 m3/h)->Mm3/day
mpc.Gbus(:,[5,6]) = mpc.Gbus(:,[5,6]) * 10; % 10^6 pa -> bar
mpc.Gline(:,[4,5]) = mpc.Gline(:,[4,5]) * 24;
mpc.Gsou(:,[3,4]) = mpc.Gsou(:,[3,4]) * 24;
% mpc.Gcost = mpc.Gcost * 1e3 / 24;
mpc.Gcost = mpc.Gcost * 5000;
end

